L6/1726528/Vaos.dss
! ==========================================================
! VAOS DE SAIDA — barra de MT da SE -> cabeceira do alimentador
! Derivado de CTMT.BARR e CTMT.UNI_TR_AT: a BDGD nao modela o
! arranjo interno da subestacao, so o vinculo logico.
! Cada vao e o disjuntor de saida do alimentador.
! ==========================================================
New Line.VAO_ANAD213 phases=3 Bus1=629071038.1.2.3 Bus2=segm_2664603581.1.2.3 Switch=y r1=0.0001 r0=0.0001 x1=0 x0=0 c1=0 c0=0
New Monitor.M_ANAD213 element=Line.VAO_ANAD213 terminal=1 mode=1 ppolar=no
New Line.VAO_ANAD208 phases=3 Bus1=629071038.1.2.3 Bus2=segm_2664603469.1.2.3 Switch=y r1=0.0001 r0=0.0001 x1=0 x0=0 c1=0 c0=0
New Monitor.M_ANAD208 element=Line.VAO_ANAD208 terminal=1 mode=1 ppolar=no
New Line.VAO_ANAD204 phases=3 Bus1=629071038.1.2.3 Bus2=segm_2664603413.1.2.3 Switch=y r1=0.0001 r0=0.0001 x1=0 x0=0 c1=0 c0=0
New Monitor.M_ANAD204 element=Line.VAO_ANAD204 terminal=1 mode=1 ppolar=no
New Line.VAO_ANAD216 phases=3 Bus1=629071038.1.2.3 Bus2=segm_2664603609.1.2.3 Switch=y r1=0.0001 r0=0.0001 x1=0 x0=0 c1=0 c0=0
New Monitor.M_ANAD216 element=Line.VAO_ANAD216 terminal=1 mode=1 ppolar=no
New Line.VAO_ANAD209 phases=3 Bus1=629071038.1.2.3 Bus2=segm_2664603497.1.2.3 Switch=y r1=0.0001 r0=0.0001 x1=0 x0=0 c1=0 c0=0
New Monitor.M_ANAD209 element=Line.VAO_ANAD209 terminal=1 mode=1 ppolar=no
New Line.VAO_ANAD212 phases=3 Bus1=629071038.1.2.3 Bus2=segm_2664603553.1.2.3 Switch=y r1=0.0001 r0=0.0001 x1=0 x0=0 c1=0 c0=0
New Monitor.M_ANAD212 element=Line.VAO_ANAD212 terminal=1 mode=1 ppolar=no
New Line.VAO_ANAD217 phases=3 Bus1=629071038.1.2.3 Bus2=segm_2664603637.1.2.3 Switch=y r1=0.0001 r0=0.0001 x1=0 x0=0 c1=0 c0=0
New Monitor.M_ANAD217 element=Line.VAO_ANAD217 terminal=1 mode=1 ppolar=no
New Line.VAO_ANAD205 phases=3 Bus1=629071038.1.2.3 Bus2=100_389066918a.1.2.3 Switch=y r1=0.0001 r0=0.0001 x1=0 x0=0 c1=0 c0=0
New Monitor.M_ANAD205 element=Line.VAO_ANAD205 terminal=1 mode=1 ppolar=no
